.MODEL BC807-16  PNP (IS=50.7f NF=1.00 BF=342 VAF=121
+ IKF=0.273 ISE=24.2p NE=2.00 BR=4.00 NR=1.00
+ VAR=20.0 IKR=0.675 RE=0.213 RB=0.852 RC=85.2m
+ XTB=1.5 CJE=107p VJE=1.10 MJE=0.500 CJC=34.7p VJC=0.300 MJC=0.300 
+ TF=631p TR=111n EG=1.12 )
