.MODEL BC817-16  NPN (IS=4.04n NF=1.00 BF=342 VAF=121
+ IKF=0.273 ISE=6.86n NE=2.00 BR=4.00 NR=1.00
+ VAR=20.0 IKR=0.675 RE=0.227 RB=0.907 RC=90.7m
+ XTB=1.5 CJE=107p VJE=1.10 MJE=0.500 CJC=34.7p VJC=0.300 MJC=0.300 
+ TF=651p TR=111n EG=1.12 )
